# created with PyMOL 2.0.1
@<TRIPOS>MOLECULE
PRF
58 59 1                 
SMALL
USER_CHARGES
@<TRIPOS>ATOM
1	  C1	-36.916	4.850	104.090	C.3	1	PRF1	0.128	
2	 C10	-41.194	7.410	98.588	C.2	1	PRF1	0.468	
3	 C11	-41.322	8.551	96.373	C.3	1	PRF1	0.036	
4	 C12	-41.715	10.026	96.480	C.2	1	PRF1	0.620	
5	 C13	-41.635	10.932	95.255	C.3	1	PRF1	0.152	
6	 C14	-42.618	10.537	94.136	C.3	1	PRF1	0.237	
7	 C15	-42.458	11.411	92.874	C.3	1	PRF1	0.263	
8	  C2	-37.212	6.218	103.468	C.3	1	PRF1	0.231	
9	  C3	-38.134	7.149	104.277	C.3	1	PRF1	0.574	
10	  C4	-38.849	7.941	103.174	C.3	1	PRF1	0.171	
11	  C5	-38.903	6.965	101.992	C.3	1	PRF1	0.207	
12	  C6	-40.828	5.486	102.736	C.2	1	PRF1	0.125	
13	  C7	-42.092	5.623	100.981	C.2	1	PRF1	-0.100	
14	  C8	-43.291	5.303	100.207	C.2	1	PRF1	0.751	
15	  C9	-40.971	6.397	100.688	C.2	1	PRF1	0.318	
16	  H1	-36.186	4.353	103.421	 H	1	PRF1	0.010	
17	 H10	-45.014	4.251	100.462	 H	1	PRF1	0.359	
18	 H11	-43.836	4.094	101.754	 H	1	PRF1	0.359	
19	 H12	-42.239	7.113	98.466	 H	1	PRF1	0.147	
20	 H13	-39.678	8.375	97.695	 H	1	PRF1	0.360	
21	 H14	-42.242	7.979	96.220	 H	1	PRF1	0.108	
22	 H15	-40.722	8.391	95.473	 H	1	PRF1	0.108	
23	 H16	-40.617	10.840	94.842	 H	1	PRF1	0.064	
24	 H17	-42.142	12.208	96.590	 H	1	PRF1	0.449	
25	 H18	-43.643	10.642	94.534	 H	1	PRF1	0.004	
26	 H19	-42.580	9.226	92.801	 H	1	PRF1	0.528	
27	  H2	-36.422	5.044	105.059	 H	1	PRF1	0.010	
28	 H20	-41.384	11.557	92.662	 H	1	PRF1	0.020	
29	 H21	-42.918	12.397	93.028	 H	1	PRF1	0.020	
30	  H3	-36.241	6.731	103.313	 H	1	PRF1	-0.094	
31	  H4	-38.844	6.549	104.873	 H	1	PRF1	0.024	
32	  H5	-37.205	8.790	104.620	 H	1	PRF1	0.382	
33	  H6	-39.830	8.323	103.462	 H	1	PRF1	0.034	
34	  H7	-37.342	8.794	102.249	 H	1	PRF1	0.415	
35	  H8	-38.768	7.508	101.053	 H	1	PRF1	0.041	
36	  H9	-40.431	5.242	103.740	 H	1	PRF1	0.242	
37	  N1	-40.181	6.291	101.826	Du	1	PRF1	-0.020	
38	  N2	-41.972	5.078	102.250	Du	1	PRF1	-0.559	
39	  N3	-44.069	4.343	100.799	Du	1	PRF1	-0.856	
40	  N4	-40.483	7.136	99.630	Du	1	PRF1	-0.629	
41	  N5	-40.627	8.060	97.541	Du	1	PRF1	-0.655	
42	  O1	-37.749	4.382	106.799	Du	1	PRF1	-1.026	
43	 O10	-41.852	12.265	95.663	Du	1	PRF1	-0.776	
44	 O11	-42.377	9.194	93.772	Du	1	PRF1	-0.864	
45	 O12	-43.063	10.695	91.848	Du	1	PRF1	-0.654	
46	 O13	-41.129	11.095	90.157	Du	1	PRF1	-1.029	
47	 O14	-43.194	12.659	90.144	Du	1	PRF1	-1.029	
48	 O15	-43.437	10.183	89.366	Du	1	PRF1	-1.029	
49	  O2	-39.340	2.537	105.866	Du	1	PRF1	-1.026	
50	  O3	-39.939	5.048	105.588	Du	1	PRF1	-1.026	
51	  O4	-38.015	4.034	104.245	Du	1	PRF1	-0.579	
52	  O5	-37.837	6.069	102.174	Du	1	PRF1	-0.485	
53	  O6	-37.428	8.014	105.155	Du	1	PRF1	-0.784	
54	  O7	-38.072	9.100	102.805	Du	1	PRF1	-0.724	
55	  O8	-43.620	5.804	99.122	Du	1	PRF1	-0.717	
56	  O9	-42.063	10.496	97.550	Du	1	PRF1	-0.618	
57	  P1	-38.844	3.974	105.810	Du	1	PRF1	1.674	
58	  P2	-42.658	11.223	90.165	Du	1	PRF1	1.638	
@<TRIPOS>BOND
1 1 8 1
2 1 16 1
3 1 27 1
4 2 19 1
5 2 41 1
6 3 4 1
7 3 21 1
8 3 22 1
9 4 5 1
10 4 56 2
11 5 6 1
12 5 23 1
13 5 43 1
14 6 7 1
15 6 25 1
16 6 44 1
17 7 28 1
18 7 29 1
19 7 45 1
20 8 9 1
21 8 30 1
22 8 52 1
23 9 10 1
24 9 31 1
25 9 53 1
26 10 11 1
27 10 33 1
28 10 54 1
29 11 35 1
30 11 37 1
31 12 36 1
32 12 38 2
33 13 14 1
34 13 15 2
35 14 39 1
36 14 55 2
37 15 40 1
38 12 37 1
39 15 37 1
40 13 38 1
41 17 39 1
42 18 39 1
43 2 40 2
44 3 41 1
45 20 41 1
46 42 57 1
47 24 43 1
48 26 44 1
49 45 58 1
50 1 51 1
51 11 52 1
52 32 53 1
53 34 54 1
54 49 57 1
55 50 57 1
56 51 57 1
57 46 58 1
58 47 58 1
59 48 58 1
@<TRIPOS>SUBSTRUCTURE
1	PRF1	1	GROUP	1 ****	PRF
